backend/src/smart_meter_simulator/data/grids/cineldi_56_bus_semi_urban.glm
// Generated GridLAB-D model from the CINELDI LV reference grid
// Source: ../../../cineldi_lv_reference_system/lv_reference_grids/56_bus_semi_urban_reference_grid
// Regenerated by scripts/regen_reference_glm.py -- do not hand-edit;
// change the constants in that script and re-run instead.
//
// Base: 0.23 kV L-L, 0.050000 MVA -> Zbase 1.0580 ohm. Per-branch r/x are carried through exactly
// as resistance_ohm_per_km / reactance_ohm_per_km on each line; the
// line_configuration objects hold the nominal per-conductor values and exist
// for real GridLAB-D tooling (the explicit per-line values take priority in
// this backend's parser). capacity_kw comes from the MATPOWER rateA column.
//
// ref_lv_bus_1 is the MV substation busbar (12.7 kV L-N
// -> ~22 kV L-L on ABCN, matching TRANSFORMER_MV_KV). Its LV network hangs off
// 5 distribution transformers (pcc_1..pcc_5) rather than lines, which is
// what makes each group a microgrid zone: the loader partitions on the line-only
// graph, so everything behind a transformer is one zone, and that transformer is
// the PCC tripped to island it. Zone codes come from the transformer names
// (1..5) -- keep them below IOT_NUM_ZONES (default 10) or the
// parent bridge hashes them to an arbitrary zone_<n> stream instead of routing.
//
//
// Loads are the 2021-01-01 00:00:00 snapshot of p_load/q_load (VA), not a time series.
// No DER: the dataset ships none and none was requested, so no zone can
// hold voltage on its own if islanded.
module powerflow;
module generators;

// ---- conductor types (nominal; per-line values below take priority) ----
object line_configuration {
    name "lc_pfsp_1x3x16_cu";
    z11 1.15+0.085j ohm/km;
    resistance_ohm_per_km 1.15;
    reactance_ohm_per_km 0.085;
    impedance_length_unit km;
    // PFSP 1X3X16 CU, mean over 1 branches
}

object line_configuration {
    name "lc_pfsp_1x3x25_al";
    z11 1.2+0.082j ohm/km;
    resistance_ohm_per_km 1.2;
    reactance_ohm_per_km 0.082;
    impedance_length_unit km;
    // PFSP 1X3X25 AL, mean over 5 branches
}

object line_configuration {
    name "lc_pfsp_1x3x50_al";
    z11 0.641+0.079j ohm/km;
    resistance_ohm_per_km 0.641;
    reactance_ohm_per_km 0.079;
    impedance_length_unit km;
    // PFSP 1X3X50 AL, mean over 21 branches
}

object line_configuration {
    name "lc_tfsp_1x3x150_al";
    z11 0.206+0.072j ohm/km;
    resistance_ohm_per_km 0.206;
    reactance_ohm_per_km 0.072;
    impedance_length_unit km;
    // TFSP 1X3X150 AL, mean over 4 branches
}

object line_configuration {
    name "lc_tfsp_1x3x240_al";
    z11 0.125+0.072j ohm/km;
    resistance_ohm_per_km 0.125;
    reactance_ohm_per_km 0.072;
    impedance_length_unit km;
    // TFSP 1X3X240 AL, mean over 3 branches
}

object line_configuration {
    name "lc_tfsp_1x3x95_al";
    z11 0.32+0.079j ohm/km;
    resistance_ohm_per_km 0.32;
    reactance_ohm_per_km 0.079;
    impedance_length_unit km;
    // TFSP 1X3X95 AL, mean over 2 branches
}

object line_configuration {
    name "lc_tfxp_1x4x150_al";
    z11 0.206+0.072j ohm/km;
    resistance_ohm_per_km 0.206;
    reactance_ohm_per_km 0.072;
    impedance_length_unit km;
    // TFXP 1X4X150 AL, mean over 2 branches
}

object line_configuration {
    name "lc_tfxp_1x4x50";
    z11 0.641+0.079j ohm/km;
    resistance_ohm_per_km 0.641;
    reactance_ohm_per_km 0.079;
    impedance_length_unit km;
    // TFXP 1X4X50, mean over 2 branches
}

object line_configuration {
    name "lc_tfxp_1x4x50_al";
    z11 0.641+0.079j ohm/km;
    resistance_ohm_per_km 0.641;
    reactance_ohm_per_km 0.079;
    impedance_length_unit km;
    // TFXP 1X4X50 AL, mean over 14 branches
}

object line_configuration {
    name "lc_tfxp_1x4x95_al";
    z11 0.32+0.075j ohm/km;
    resistance_ohm_per_km 0.32;
    reactance_ohm_per_km 0.075;
    impedance_length_unit km;
    // TFXP 1X4X95 AL, mean over 1 branches
}

// ---- buses ----
object meter {
    name "ref_lv_bus_1";
    phases ABCN;
    nominal_voltage 12700.00;
}

object meter {
    name "ref_lv_bus_14";
    phases ABCN;
    nominal_voltage 230.00;
}

object meter {
    name "ref_lv_bus_54";
    phases ABCN;
    nominal_voltage 230.00;
}

object meter {
    name "ref_lv_bus_40";
    phases ABCN;
    nominal_voltage 230.00;
}

object meter {
    name "ref_lv_bus_48";
    phases ABCN;
    nominal_voltage 230.00;
}

object meter {
    name "ref_lv_bus_28";
    phases ABCN;
    nominal_voltage 230.00;
}

object meter {
    name "ref_lv_bus_41";
    phases ABCN;
    nominal_voltage 230.00;
}

object meter {
    name "ref_lv_bus_47";
    phases ABCN;
    nominal_voltage 230.00;
}

object meter {
    name "ref_lv_bus_55";
    phases ABCN;
    nominal_voltage 230.00;
}

object meter {
    name "ref_lv_bus_56";
    phases ABCN;
    nominal_voltage 230.00;
}

object meter {
    name "ref_lv_bus_6";
    phases ABCN;
    nominal_voltage 230.00;
}

object meter {
    name "ref_lv_bus_5";
    phases ABCN;
    nominal_voltage 230.00;
}

object meter {
    name "ref_lv_bus_4";
    phases ABCN;
    nominal_voltage 230.00;
}

object meter {
    name "ref_lv_bus_29";
    phases ABCN;
    nominal_voltage 230.00;
}

object meter {
    name "ref_lv_bus_30";
    phases ABCN;
    nominal_voltage 230.00;
}

object meter {
    name "ref_lv_bus_27";
    phases ABCN;
    nominal_voltage 230.00;
}

object meter {
    name "ref_lv_bus_26";
    phases ABCN;
    nominal_voltage 230.00;
}

object meter {
    name "ref_lv_bus_49";
    phases ABCN;
    nominal_voltage 230.00;
}

object meter {
    name "ref_lv_bus_51";
    phases ABCN;
    nominal_voltage 230.00;
}

object meter {
    name "ref_lv_bus_50";
    phases ABCN;
    nominal_voltage 230.00;
}

object meter {
    name "ref_lv_bus_3";
    phases ABCN;
    nominal_voltage 230.00;
}

object meter {
    name "ref_lv_bus_7";
    phases ABCN;
    nominal_voltage 230.00;
}

object meter {
    name "ref_lv_bus_25";
    phases ABCN;
    nominal_voltage 230.00;
}

object meter {
    name "ref_lv_bus_52";
    phases ABCN;
    nominal_voltage 230.00;
}

object meter {
    name "ref_lv_bus_33";
    phases ABCN;
    nominal_voltage 230.00;
}

object meter {
    name "ref_lv_bus_36";
    phases ABCN;
    nominal_voltage 230.00;
}

object meter {
    name "ref_lv_bus_43";
    phases ABCN;
    nominal_voltage 230.00;
}

object meter {
    name "ref_lv_bus_35";
    phases ABCN;
    nominal_voltage 230.00;
}

object meter {
    name "ref_lv_bus_46";
    phases ABCN;
    nominal_voltage 230.00;
}

object meter {
    name "ref_lv_bus_34";
    phases ABCN;
    nominal_voltage 230.00;
}

object meter {
    name "ref_lv_bus_45";
    phases ABCN;
    nominal_voltage 230.00;
}

object meter {
    name "ref_lv_bus_44";
    phases ABCN;
    nominal_voltage 230.00;
}

object meter {
    name "ref_lv_bus_32";
    phases ABCN;
    nominal_voltage 230.00;
}

object meter {
    name "ref_lv_bus_38";
    phases ABCN;
    nominal_voltage 230.00;
}

object meter {
    name "ref_lv_bus_17";
    phases ABCN;
    nominal_voltage 230.00;
}

object meter {
    name "ref_lv_bus_15";
    phases ABCN;
    nominal_voltage 230.00;
}

object meter {
    name "ref_lv_bus_16";
    phases ABCN;
    nominal_voltage 230.00;
}

object meter {
    name "ref_lv_bus_39";
    phases ABCN;
    nominal_voltage 230.00;
}

object meter {
    name "ref_lv_bus_12";
    phases ABCN;
    nominal_voltage 230.00;
}

object meter {
    name "ref_lv_bus_11";
    phases ABCN;
    nominal_voltage 230.00;
}

object meter {
    name "ref_lv_bus_20";
    phases ABCN;
    nominal_voltage 230.00;
}

object meter {
    name "ref_lv_bus_13";
    phases ABCN;
    nominal_voltage 230.00;
}

object meter {
    name "ref_lv_bus_9";
    phases ABCN;
    nominal_voltage 230.00;
}

object meter {
    name "ref_lv_bus_21";
    phases ABCN;
    nominal_voltage 230.00;
}

object meter {
    name "ref_lv_bus_22";
    phases ABCN;
    nominal_voltage 230.00;
}

object meter {
    name "ref_lv_bus_24";
    phases ABCN;
    nominal_voltage 230.00;
}

object meter {
    name "ref_lv_bus_18";
    phases ABCN;
    nominal_voltage 230.00;
}

object meter {
    name "ref_lv_bus_19";
    phases ABCN;
    nominal_voltage 230.00;
}

object meter {
    name "ref_lv_bus_23";
    phases ABCN;
    nominal_voltage 230.00;
}

object meter {
    name "ref_lv_bus_37";
    phases ABCN;
    nominal_voltage 230.00;
}

object meter {
    name "ref_lv_bus_10";
    phases ABCN;
    nominal_voltage 230.00;
}

object meter {
    name "ref_lv_bus_42";
    phases ABCN;
    nominal_voltage 230.00;
}

object meter {
    name "ref_lv_bus_8";
    phases ABCN;
    nominal_voltage 230.00;
}

object meter {
    name "ref_lv_bus_2";
    phases ABCN;
    nominal_voltage 230.00;
}

object meter {
    name "ref_lv_bus_53";
    phases ABCN;
    nominal_voltage 230.00;
}

object meter {
    name "ref_lv_bus_31";
    phases ABCN;
    nominal_voltage 230.00;
}

// ---- PCC transformers (CINELDI LV branches promoted to MV/LV units) ----
object transformer_configuration {
    name "pcc_1_cfg";
    connect_type WYE_WYE;
    power_rating 50;
    primary_voltage 12700.00;
    secondary_voltage 230.00;
    resistance 0.01900;
    reactance 0.03520;
    // sized for zone peak 29.0 kVA / PV 0 kW
    // x 1.25 -> next standard size
}

object transformer {
    name "pcc_1";
    phases ABCN;
    from "ref_lv_bus_1";
    to "ref_lv_bus_2";
    configuration "pcc_1_cfg";
    // replaces CINELDI branch 1-2 (2.0 m cable)
}

object transformer_configuration {
    name "pcc_2_cfg";
    connect_type WYE_WYE;
    power_rating 100;
    primary_voltage 12700.00;
    secondary_voltage 230.00;
    resistance 0.01600;
    reactance 0.03666;
    // sized for zone peak 67.7 kVA / PV 0 kW
    // x 1.25 -> next standard size
}

object transformer {
    name "pcc_2";
    phases ABCN;
    from "ref_lv_bus_1";
    to "ref_lv_bus_8";
    configuration "pcc_2_cfg";
    // replaces CINELDI branch 1-8 (140.0 m cable)
}

object transformer_configuration {
    name "pcc_3_cfg";
    connect_type WYE_WYE;
    power_rating 100;
    primary_voltage 12700.00;
    secondary_voltage 230.00;
    resistance 0.01600;
    reactance 0.03666;
    // sized for zone peak 71.1 kVA / PV 0 kW
    // x 1.25 -> next standard size
}

object transformer {
    name "pcc_3";
    phases ABCN;
    from "ref_lv_bus_1";
    to "ref_lv_bus_25";
    configuration "pcc_3_cfg";
    // replaces CINELDI branch 1-25 (82.0 m cable)
}

object transformer_configuration {
    name "pcc_4_cfg";
    connect_type WYE_WYE;
    power_rating 100;
    primary_voltage 12700.00;
    secondary_voltage 230.00;
    resistance 0.01600;
    reactance 0.03666;
    // sized for zone peak 52.3 kVA / PV 0 kW
    // x 1.25 -> next standard size
}

object transformer {
    name "pcc_4";
    phases ABCN;
    from "ref_lv_bus_1";
    to "ref_lv_bus_41";
    configuration "pcc_4_cfg";
    // replaces CINELDI branch 1-41 (178.0 m cable)
}

object transformer_configuration {
    name "pcc_5_cfg";
    connect_type WYE_WYE;
    power_rating 50;
    primary_voltage 12700.00;
    secondary_voltage 230.00;
    resistance 0.01900;
    reactance 0.03520;
    // sized for zone peak 26.0 kVA / PV 0 kW
    // x 1.25 -> next standard size
}

object transformer {
    name "pcc_5";
    phases ABCN;
    from "ref_lv_bus_1";
    to "ref_lv_bus_53";
    configuration "pcc_5_cfg";
    // replaces CINELDI branch 1-53 (84.9 m cable)
}

// ---- lines ----
object overhead_line {
    name "Line_1";
    phases ABCN;
    from "ref_lv_bus_2";
    to "ref_lv_bus_3";
    length 65.616800 ft;
    configuration "lc_pfsp_1x3x50_al";
    resistance_ohm_per_km 0.641;
    reactance_ohm_per_km 0.079;
    impedance_length_unit km;
    capacity_kw 59.76;
    // PFSP 1X3X50 AL, 20.0 m
}

object overhead_line {
    name "Line_2";
    phases ABCN;
    from "ref_lv_bus_2";
    to "ref_lv_bus_4";
    length 91.863520 ft;
    configuration "lc_pfsp_1x3x25_al";
    resistance_ohm_per_km 1.2;
    reactance_ohm_per_km 0.082;
    impedance_length_unit km;
    capacity_kw 39.84;
    // PFSP 1X3X25 AL, 28.0 m
}

object overhead_line {
    name "Line_3";
    phases ABCN;
    from "ref_lv_bus_2";
    to "ref_lv_bus_5";
    length 124.671920 ft;
    configuration "lc_pfsp_1x3x25_al";
    resistance_ohm_per_km 1.2;
    reactance_ohm_per_km 0.082;
    impedance_length_unit km;
    capacity_kw 39.84;
    // PFSP 1X3X25 AL, 38.0 m
}

object overhead_line {
    name "Line_4";
    phases ABCN;
    from "ref_lv_bus_2";
    to "ref_lv_bus_6";
    length 170.603680 ft;
    configuration "lc_pfsp_1x3x25_al";
    resistance_ohm_per_km 1.2;
    reactance_ohm_per_km 0.082;
    impedance_length_unit km;
    capacity_kw 39.84;
    // PFSP 1X3X25 AL, 52.0 m
}

object overhead_line {
    name "Line_5";
    phases ABCN;
    from "ref_lv_bus_2";
    to "ref_lv_bus_7";
    length 196.850400 ft;
    configuration "lc_pfsp_1x3x50_al";
    resistance_ohm_per_km 0.641;
    reactance_ohm_per_km 0.079;
    impedance_length_unit km;
    capacity_kw 59.76;
    // PFSP 1X3X50 AL, 60.0 m
}

object overhead_line {
    name "Line_7";
    phases ABCN;
    from "ref_lv_bus_8";
    to "ref_lv_bus_9";
    length 111.548560 ft;
    configuration "lc_pfsp_1x3x50_al";
    resistance_ohm_per_km 0.641;
    reactance_ohm_per_km 0.079;
    impedance_length_unit km;
    capacity_kw 59.76;
    // PFSP 1X3X50 AL, 34.0 m
}

object overhead_line {
    name "Line_8";
    phases ABCN;
    from "ref_lv_bus_8";
    to "ref_lv_bus_10";
    length 3.280840 ft;
    configuration "lc_tfxp_1x4x150_al";
    resistance_ohm_per_km 0.206;
    reactance_ohm_per_km 0.072;
    impedance_length_unit km;
    capacity_kw 133.45;
    // TFXP 1X4X150 AL, 1.0 m
}

object overhead_line {
    name "Line_9";
    phases ABCN;
    from "ref_lv_bus_10";
    to "ref_lv_bus_11";
    length 91.863520 ft;
    configuration "lc_pfsp_1x3x50_al";
    resistance_ohm_per_km 0.641;
    reactance_ohm_per_km 0.079;
    impedance_length_unit km;
    capacity_kw 59.76;
    // PFSP 1X3X50 AL, 28.0 m
}

object overhead_line {
    name "Line_10";
    phases ABCN;
    from "ref_lv_bus_10";
    to "ref_lv_bus_12";
    length 164.042000 ft;
    configuration "lc_pfsp_1x3x16_cu";
    resistance_ohm_per_km 1.15;
    reactance_ohm_per_km 0.085;
    impedance_length_unit km;
    capacity_kw 39.84;
    // PFSP 1X3X16 CU, 50.0 m
}

object overhead_line {
    name "Line_11";
    phases ABCN;
    from "ref_lv_bus_10";
    to "ref_lv_bus_13";
    length 59.055120 ft;
    configuration "lc_pfsp_1x3x50_al";
    resistance_ohm_per_km 0.641;
    reactance_ohm_per_km 0.079;
    impedance_length_unit km;
    capacity_kw 59.76;
    // PFSP 1X3X50 AL, 18.0 m
}

object overhead_line {
    name "Line_12";
    phases ABCN;
    from "ref_lv_bus_10";
    to "ref_lv_bus_14";
    length 229.658800 ft;
    configuration "lc_tfxp_1x4x150_al";
    resistance_ohm_per_km 0.206;
    reactance_ohm_per_km 0.072;
    impedance_length_unit km;
    capacity_kw 133.45;
    // TFXP 1X4X150 AL, 70.0 m
}

object overhead_line {
    name "Line_13";
    phases ABCN;
    from "ref_lv_bus_14";
    to "ref_lv_bus_15";
    length 164.042000 ft;
    configuration "lc_tfxp_1x4x50";
    resistance_ohm_per_km 0.641;
    reactance_ohm_per_km 0.079;
    impedance_length_unit km;
    capacity_kw 71.71;
    // TFXP 1X4X50, 50.0 m
}

object overhead_line {
    name "Line_14";
    phases ABCN;
    from "ref_lv_bus_14";
    to "ref_lv_bus_16";
    length 170.603680 ft;
    configuration "lc_tfxp_1x4x50";
    resistance_ohm_per_km 0.641;
    reactance_ohm_per_km 0.079;
    impedance_length_unit km;
    capacity_kw 71.71;
    // TFXP 1X4X50, 52.0 m
}

object overhead_line {
    name "Line_15";
    phases ABCN;
    from "ref_lv_bus_14";
    to "ref_lv_bus_17";
    length 65.616800 ft;
    configuration "lc_tfxp_1x4x50_al";
    resistance_ohm_per_km 0.641;
    reactance_ohm_per_km 0.079;
    impedance_length_unit km;
    capacity_kw 71.71;
    // TFXP 1X4X50 AL, 20.0 m
}

object overhead_line {
    name "Line_16";
    phases ABCN;
    from "ref_lv_bus_14";
    to "ref_lv_bus_18";
    length 82.021000 ft;
    configuration "lc_tfxp_1x4x50_al";
    resistance_ohm_per_km 0.641;
    reactance_ohm_per_km 0.079;
    impedance_length_unit km;
    capacity_kw 71.71;
    // TFXP 1X4X50 AL, 25.0 m
}

object overhead_line {
    name "Line_17";
    phases ABCN;
    from "ref_lv_bus_14";
    to "ref_lv_bus_19";
    length 88.582680 ft;
    configuration "lc_tfxp_1x4x95_al";
    resistance_ohm_per_km 0.32;
    reactance_ohm_per_km 0.075;
    impedance_length_unit km;
    capacity_kw 103.58;
    // TFXP 1X4X95 AL, 27.0 m
}

object overhead_line {
    name "Line_18";
    phases ABCN;
    from "ref_lv_bus_19";
    to "ref_lv_bus_20";
    length 85.301840 ft;
    configuration "lc_tfxp_1x4x50_al";
    resistance_ohm_per_km 0.641;
    reactance_ohm_per_km 0.079;
    impedance_length_unit km;
    capacity_kw 71.71;
    // TFXP 1X4X50 AL, 26.0 m
}

object overhead_line {
    name "Line_19";
    phases ABCN;
    from "ref_lv_bus_19";
    to "ref_lv_bus_21";
    length 72.178480 ft;
    configuration "lc_tfxp_1x4x50_al";
    resistance_ohm_per_km 0.641;
    reactance_ohm_per_km 0.079;
    impedance_length_unit km;
    capacity_kw 71.71;
    // TFXP 1X4X50 AL, 22.0 m
}

object overhead_line {
    name "Line_20";
    phases ABCN;
    from "ref_lv_bus_19";
    to "ref_lv_bus_22";
    length 187.007880 ft;
    configuration "lc_tfxp_1x4x50_al";
    resistance_ohm_per_km 0.641;
    reactance_ohm_per_km 0.079;
    impedance_length_unit km;
    capacity_kw 71.71;
    // TFXP 1X4X50 AL, 57.0 m
}

object overhead_line {
    name "Line_21";
    phases ABCN;
    from "ref_lv_bus_19";
    to "ref_lv_bus_23";
    length 177.165360 ft;
    configuration "lc_tfxp_1x4x50_al";
    resistance_ohm_per_km 0.641;
    reactance_ohm_per_km 0.079;
    impedance_length_unit km;
    capacity_kw 71.71;
    // TFXP 1X4X50 AL, 54.0 m
}

object overhead_line {
    name "Line_22";
    phases ABCN;
    from "ref_lv_bus_8";
    to "ref_lv_bus_24";
    length 3.280840 ft;
    configuration "lc_tfxp_1x4x50_al";
    resistance_ohm_per_km 0.641;
    reactance_ohm_per_km 0.079;
    impedance_length_unit km;
    capacity_kw 71.71;
    // TFXP 1X4X50 AL, 1.0 m
}

object overhead_line {
    name "Line_24";
    phases ABCN;
    from "ref_lv_bus_25";
    to "ref_lv_bus_26";
    length 236.220480 ft;
    configuration "lc_pfsp_1x3x50_al";
    resistance_ohm_per_km 0.641;
    reactance_ohm_per_km 0.079;
    impedance_length_unit km;
    capacity_kw 59.76;
    // PFSP 1X3X50 AL, 72.0 m
}

object overhead_line {
    name "Line_25";
    phases ABCN;
    from "ref_lv_bus_25";
    to "ref_lv_bus_27";
    length 147.637800 ft;
    configuration "lc_pfsp_1x3x50_al";
    resistance_ohm_per_km 0.641;
    reactance_ohm_per_km 0.079;
    impedance_length_unit km;
    capacity_kw 59.76;
    // PFSP 1X3X50 AL, 45.0 m
}

object overhead_line {
    name "Line_26";
    phases ABCN;
    from "ref_lv_bus_25";
    to "ref_lv_bus_28";
    length 111.548560 ft;
    configuration "lc_pfsp_1x3x50_al";
    resistance_ohm_per_km 0.641;
    reactance_ohm_per_km 0.079;
    impedance_length_unit km;
    capacity_kw 59.76;
    // PFSP 1X3X50 AL, 34.0 m
}

object overhead_line {
    name "Line_27";
    phases ABCN;
    from "ref_lv_bus_25";
    to "ref_lv_bus_29";
    length 68.897640 ft;
    configuration "lc_pfsp_1x3x50_al";
    resistance_ohm_per_km 0.641;
    reactance_ohm_per_km 0.079;
    impedance_length_unit km;
    capacity_kw 59.76;
    // PFSP 1X3X50 AL, 21.0 m
}

object overhead_line {
    name "Line_28";
    phases ABCN;
    from "ref_lv_bus_25";
    to "ref_lv_bus_30";
    length 147.637800 ft;
    configuration "lc_pfsp_1x3x50_al";
    resistance_ohm_per_km 0.641;
    reactance_ohm_per_km 0.079;
    impedance_length_unit km;
    capacity_kw 59.76;
    // PFSP 1X3X50 AL, 45.0 m
}

object overhead_line {
    name "Line_29";
    phases ABCN;
    from "ref_lv_bus_25";
    to "ref_lv_bus_31";
    length 95.144360 ft;
    configuration "lc_tfsp_1x3x240_al";
    resistance_ohm_per_km 0.125;
    reactance_ohm_per_km 0.072;
    impedance_length_unit km;
    capacity_kw 173.29;
    // TFSP 1X3X240 AL, 29.0 m
}

object overhead_line {
    name "Line_30";
    phases ABCN;
    from "ref_lv_bus_31";
    to "ref_lv_bus_32";
    length 108.267720 ft;
    configuration "lc_pfsp_1x3x50_al";
    resistance_ohm_per_km 0.641;
    reactance_ohm_per_km 0.079;
    impedance_length_unit km;
    capacity_kw 59.76;
    // PFSP 1X3X50 AL, 33.0 m
}

object overhead_line {
    name "Line_31";
    phases ABCN;
    from "ref_lv_bus_31";
    to "ref_lv_bus_33";
    length 59.055120 ft;
    configuration "lc_pfsp_1x3x50_al";
    resistance_ohm_per_km 0.641;
    reactance_ohm_per_km 0.079;
    impedance_length_unit km;
    capacity_kw 59.76;
    // PFSP 1X3X50 AL, 18.0 m
}

object overhead_line {
    name "Line_32";
    phases ABCN;
    from "ref_lv_bus_31";
    to "ref_lv_bus_34";
    length 193.569560 ft;
    configuration "lc_pfsp_1x3x50_al";
    resistance_ohm_per_km 0.641;
    reactance_ohm_per_km 0.079;
    impedance_length_unit km;
    capacity_kw 59.76;
    // PFSP 1X3X50 AL, 59.0 m
}

object overhead_line {
    name "Line_33";
    phases ABCN;
    from "ref_lv_bus_31";
    to "ref_lv_bus_35";
    length 183.727040 ft;
    configuration "lc_pfsp_1x3x50_al";
    resistance_ohm_per_km 0.641;
    reactance_ohm_per_km 0.079;
    impedance_length_unit km;
    capacity_kw 59.76;
    // PFSP 1X3X50 AL, 56.0 m
}

object overhead_line {
    name "Line_34";
    phases ABCN;
    from "ref_lv_bus_31";
    to "ref_lv_bus_36";
    length 141.076120 ft;
    configuration "lc_pfsp_1x3x25_al";
    resistance_ohm_per_km 1.2;
    reactance_ohm_per_km 0.082;
    impedance_length_unit km;
    capacity_kw 39.84;
    // PFSP 1X3X25 AL, 43.0 m
}

object overhead_line {
    name "Line_35";
    phases ABCN;
    from "ref_lv_bus_31";
    to "ref_lv_bus_37";
    length 157.480320 ft;
    configuration "lc_tfsp_1x3x95_al";
    resistance_ohm_per_km 0.32;
    reactance_ohm_per_km 0.079;
    impedance_length_unit km;
    capacity_kw 103.58;
    // TFSP 1X3X95 AL, 48.0 m
}

object overhead_line {
    name "Line_36";
    phases ABCN;
    from "ref_lv_bus_37";
    to "ref_lv_bus_38";
    length 68.897640 ft;
    configuration "lc_tfxp_1x4x50_al";
    resistance_ohm_per_km 0.641;
    reactance_ohm_per_km 0.079;
    impedance_length_unit km;
    capacity_kw 71.71;
    // TFXP 1X4X50 AL, 21.0 m
}

object overhead_line {
    name "Line_37";
    phases ABCN;
    from "ref_lv_bus_37";
    to "ref_lv_bus_39";
    length 137.795280 ft;
    configuration "lc_pfsp_1x3x50_al";
    resistance_ohm_per_km 0.641;
    reactance_ohm_per_km 0.079;
    impedance_length_unit km;
    capacity_kw 59.76;
    // PFSP 1X3X50 AL, 42.0 m
}

object overhead_line {
    name "Line_38";
    phases ABCN;
    from "ref_lv_bus_37";
    to "ref_lv_bus_40";
    length 3.280840 ft;
    configuration "lc_pfsp_1x3x50_al";
    resistance_ohm_per_km 0.641;
    reactance_ohm_per_km 0.079;
    impedance_length_unit km;
    capacity_kw 59.76;
    // PFSP 1X3X50 AL, 1.0 m
}

object overhead_line {
    name "Line_40";
    phases ABCN;
    from "ref_lv_bus_41";
    to "ref_lv_bus_42";
    length 433.070880 ft;
    configuration "lc_tfsp_1x3x150_al";
    resistance_ohm_per_km 0.206;
    reactance_ohm_per_km 0.072;
    impedance_length_unit km;
    capacity_kw 133.45;
    // TFSP 1X3X150 AL, 132.0 m
}

object overhead_line {
    name "Line_41";
    phases ABCN;
    from "ref_lv_bus_42";
    to "ref_lv_bus_43";
    length 62.335960 ft;
    configuration "lc_pfsp_1x3x50_al";
    resistance_ohm_per_km 0.641;
    reactance_ohm_per_km 0.079;
    impedance_length_unit km;
    capacity_kw 59.76;
    // PFSP 1X3X50 AL, 19.0 m
}

object overhead_line {
    name "Line_42";
    phases ABCN;
    from "ref_lv_bus_42";
    to "ref_lv_bus_44";
    length 154.199480 ft;
    configuration "lc_pfsp_1x3x50_al";
    resistance_ohm_per_km 0.641;
    reactance_ohm_per_km 0.079;
    impedance_length_unit km;
    capacity_kw 59.76;
    // PFSP 1X3X50 AL, 47.0 m
}

object overhead_line {
    name "Line_43";
    phases ABCN;
    from "ref_lv_bus_42";
    to "ref_lv_bus_45";
    length 160.761160 ft;
    configuration "lc_pfsp_1x3x50_al";
    resistance_ohm_per_km 0.641;
    reactance_ohm_per_km 0.079;
    impedance_length_unit km;
    capacity_kw 59.76;
    // PFSP 1X3X50 AL, 49.0 m
}

object overhead_line {
    name "Line_44";
    phases ABCN;
    from "ref_lv_bus_42";
    to "ref_lv_bus_46";
    length 331.364840 ft;
    configuration "lc_tfxp_1x4x50_al";
    resistance_ohm_per_km 0.641;
    reactance_ohm_per_km 0.079;
    impedance_length_unit km;
    capacity_kw 71.71;
    // TFXP 1X4X50 AL, 101.0 m
}

object overhead_line {
    name "Line_45";
    phases ABCN;
    from "ref_lv_bus_42";
    to "ref_lv_bus_47";
    length 206.692920 ft;
    configuration "lc_tfxp_1x4x50_al";
    resistance_ohm_per_km 0.641;
    reactance_ohm_per_km 0.079;
    impedance_length_unit km;
    capacity_kw 71.71;
    // TFXP 1X4X50 AL, 63.0 m
}

object overhead_line {
    name "Line_46";
    phases ABCN;
    from "ref_lv_bus_42";
    to "ref_lv_bus_48";
    length 295.275600 ft;
    configuration "lc_tfxp_1x4x50_al";
    resistance_ohm_per_km 0.641;
    reactance_ohm_per_km 0.079;
    impedance_length_unit km;
    capacity_kw 71.71;
    // TFXP 1X4X50 AL, 90.0 m
}

object overhead_line {
    name "Line_47";
    phases ABCN;
    from "ref_lv_bus_42";
    to "ref_lv_bus_49";
    length 242.782160 ft;
    configuration "lc_tfxp_1x4x50_al";
    resistance_ohm_per_km 0.641;
    reactance_ohm_per_km 0.079;
    impedance_length_unit km;
    capacity_kw 71.71;
    // TFXP 1X4X50 AL, 74.0 m
}

object overhead_line {
    name "Line_48";
    phases ABCN;
    from "ref_lv_bus_42";
    to "ref_lv_bus_50";
    length 3.280840 ft;
    configuration "lc_tfxp_1x4x50_al";
    resistance_ohm_per_km 0.641;
    reactance_ohm_per_km 0.079;
    impedance_length_unit km;
    capacity_kw 71.71;
    // TFXP 1X4X50 AL, 1.0 m
}

object overhead_line {
    name "Line_49";
    phases ABCN;
    from "ref_lv_bus_41";
    to "ref_lv_bus_51";
    length 68.897640 ft;
    configuration "lc_pfsp_1x3x50_al";
    resistance_ohm_per_km 0.641;
    reactance_ohm_per_km 0.079;
    impedance_length_unit km;
    capacity_kw 59.76;
    // PFSP 1X3X50 AL, 21.0 m
}

object overhead_line {
    name "Line_50";
    phases ABCN;
    from "ref_lv_bus_41";
    to "ref_lv_bus_52";
    length 59.055120 ft;
    configuration "lc_pfsp_1x3x50_al";
    resistance_ohm_per_km 0.641;
    reactance_ohm_per_km 0.079;
    impedance_length_unit km;
    capacity_kw 59.76;
    // PFSP 1X3X50 AL, 18.0 m
}

object overhead_line {
    name "Line_52";
    phases ABCN;
    from "ref_lv_bus_53";
    to "ref_lv_bus_54";
    length 155.509138 ft;
    configuration "lc_tfsp_1x3x95_al";
    resistance_ohm_per_km 0.32;
    reactance_ohm_per_km 0.079;
    impedance_length_unit km;
    capacity_kw 103.58;
    // TFSP 1X3X95 AL, 47.4 m
}

object overhead_line {
    name "Line_53";
    phases ABCN;
    from "ref_lv_bus_53";
    to "ref_lv_bus_55";
    length 84.289915 ft;
    configuration "lc_pfsp_1x3x25_al";
    resistance_ohm_per_km 1.2;
    reactance_ohm_per_km 0.082;
    impedance_length_unit km;
    capacity_kw 39.84;
    // PFSP 1X3X25 AL, 25.7 m
}

object overhead_line {
    name "Line_54";
    phases ABCN;
    from "ref_lv_bus_53";
    to "ref_lv_bus_56";
    length 138.215991 ft;
    configuration "lc_tfxp_1x4x50_al";
    resistance_ohm_per_km 0.641;
    reactance_ohm_per_km 0.079;
    impedance_length_unit km;
    capacity_kw 71.71;
    // TFXP 1X4X50 AL, 42.1 m
}

// ---- loads (2021-01-01 00:00:00 snapshot, VA) ----
object load {
    name "Load_0";
    parent "ref_lv_bus_3";
    phases ABCN;
    constant_power_A 4724.0+959.2j;
    nominal_voltage 230.00;
}

object load {
    name "Load_1";
    parent "ref_lv_bus_4";
    phases ABCN;
    constant_power_A 2047.0+415.7j;
    nominal_voltage 230.00;
}

object load {
    name "Load_2";
    parent "ref_lv_bus_5";
    phases ABCN;
    constant_power_A 4572.0+928.4j;
    nominal_voltage 230.00;
}

object load {
    name "Load_3";
    parent "ref_lv_bus_6";
    phases ABCN;
    constant_power_A 3182.0+646.1j;
    nominal_voltage 230.00;
}

object load {
    name "Load_4";
    parent "ref_lv_bus_7";
    phases ABCN;
    constant_power_A 4542.0+922.3j;
    nominal_voltage 230.00;
}

object load {
    name "Load_5";
    parent "ref_lv_bus_9";
    phases ABCN;
    constant_power_A 3182.0+646.1j;
    nominal_voltage 230.00;
}

object load {
    name "Load_6";
    parent "ref_lv_bus_11";
    phases ABCN;
    constant_power_A 3296.0+669.3j;
    nominal_voltage 230.00;
}

object load {
    name "Load_7";
    parent "ref_lv_bus_12";
    phases ABCN;
    constant_power_A 4845.0+983.8j;
    nominal_voltage 230.00;
}

object load {
    name "Load_8";
    parent "ref_lv_bus_13";
    phases ABCN;
    constant_power_A 3879.0+787.7j;
    nominal_voltage 230.00;
}

object load {
    name "Load_9";
    parent "ref_lv_bus_15";
    phases ABCN;
    constant_power_A 3731.0+757.6j;
    nominal_voltage 230.00;
}

object load {
    name "Load_10";
    parent "ref_lv_bus_16";
    phases ABCN;
    constant_power_A 2635.0+535.1j;
    nominal_voltage 230.00;
}

object load {
    name "Load_11";
    parent "ref_lv_bus_17";
    phases ABCN;
    constant_power_A 1915.0+388.9j;
    nominal_voltage 230.00;
}

object load {
    name "Load_12";
    parent "ref_lv_bus_18";
    phases ABCN;
    constant_power_A 2658.0+539.7j;
    nominal_voltage 230.00;
}

object load {
    name "Load_13";
    parent "ref_lv_bus_20";
    phases ABCN;
    constant_power_A 3803.0+772.2j;
    nominal_voltage 230.00;
}

object load {
    name "Load_14";
    parent "ref_lv_bus_21";
    phases ABCN;
    constant_power_A 4201.0+853.0j;
    nominal_voltage 230.00;
}

object load {
    name "Load_15";
    parent "ref_lv_bus_22";
    phases ABCN;
    constant_power_A 2297.0+466.4j;
    nominal_voltage 230.00;
}

object load {
    name "Load_16";
    parent "ref_lv_bus_23";
    phases ABCN;
    constant_power_A 1549.0+314.5j;
    nominal_voltage 230.00;
}

object load {
    name "Load_17";
    parent "ref_lv_bus_24";
    phases ABCN;
    constant_power_A 1584.0+321.6j;
    nominal_voltage 230.00;
}

object load {
    name "Load_18";
    parent "ref_lv_bus_26";
    phases ABCN;
    constant_power_A 5021.0+1019.6j;
    nominal_voltage 230.00;
}

object load {
    name "Load_19";
    parent "ref_lv_bus_27";
    phases ABCN;
    constant_power_A 1995.0+405.1j;
    nominal_voltage 230.00;
}

object load {
    name "Load_20";
    parent "ref_lv_bus_28";
    phases ABCN;
    constant_power_A 2351.0+477.4j;
    nominal_voltage 230.00;
}

object load {
    name "Load_21";
    parent "ref_lv_bus_29";
    phases ABCN;
    constant_power_A 2439.0+495.3j;
    nominal_voltage 230.00;
}

object load {
    name "Load_22";
    parent "ref_lv_bus_30";
    phases ABCN;
    constant_power_A 3354.0+681.1j;
    nominal_voltage 230.00;
}

object load {
    name "Load_23";
    parent "ref_lv_bus_32";
    phases ABCN;
    constant_power_A 3906.0+793.1j;
    nominal_voltage 230.00;
}

object load {
    name "Load_24";
    parent "ref_lv_bus_33";
    phases ABCN;
    constant_power_A 3392.0+688.8j;
    nominal_voltage 230.00;
}

object load {
    name "Load_25";
    parent "ref_lv_bus_34";
    phases ABCN;
    constant_power_A 4597.0+933.5j;
    nominal_voltage 230.00;
}

object load {
    name "Load_26";
    parent "ref_lv_bus_35";
    phases ABCN;
    constant_power_A 4476.0+908.9j;
    nominal_voltage 230.00;
}

object load {
    name "Load_27";
    parent "ref_lv_bus_36";
    phases ABCN;
    constant_power_A 3732.0+757.8j;
    nominal_voltage 230.00;
}

object load {
    name "Load_28";
    parent "ref_lv_bus_38";
    phases ABCN;
    constant_power_A 2371.0+481.5j;
    nominal_voltage 230.00;
}

object load {
    name "Load_29";
    parent "ref_lv_bus_39";
    phases ABCN;
    constant_power_A 3958.0+803.7j;
    nominal_voltage 230.00;
}

object load {
    name "Load_30";
    parent "ref_lv_bus_40";
    phases ABCN;
    constant_power_A 3082.0+625.8j;
    nominal_voltage 230.00;
}

object load {
    name "Load_31";
    parent "ref_lv_bus_43";
    phases ABCN;
    constant_power_A 5246.0+1065.2j;
    nominal_voltage 230.00;
}

object load {
    name "Load_32";
    parent "ref_lv_bus_44";
    phases ABCN;
    constant_power_A 2396.0+486.5j;
    nominal_voltage 230.00;
}

object load {
    name "Load_33";
    parent "ref_lv_bus_45";
    phases ABCN;
    constant_power_A 1370.0+278.2j;
    nominal_voltage 230.00;
}

object load {
    name "Load_34";
    parent "ref_lv_bus_46";
    phases ABCN;
    constant_power_A 3152.0+640.0j;
    nominal_voltage 230.00;
}

object load {
    name "Load_35";
    parent "ref_lv_bus_47";
    phases ABCN;
    constant_power_A 2275.0+462.0j;
    nominal_voltage 230.00;
}

object load {
    name "Load_36";
    parent "ref_lv_bus_48";
    phases ABCN;
    constant_power_A 1842.0+374.0j;
    nominal_voltage 230.00;
}

object load {
    name "Load_37";
    parent "ref_lv_bus_49";
    phases ABCN;
    constant_power_A 1361.0+276.4j;
    nominal_voltage 230.00;
}

object load {
    name "Load_38";
    parent "ref_lv_bus_50";
    phases ABCN;
    constant_power_A 3302.0+670.5j;
    nominal_voltage 230.00;
}

object load {
    name "Load_39";
    parent "ref_lv_bus_51";
    phases ABCN;
    constant_power_A 3609.0+732.8j;
    nominal_voltage 230.00;
}

object load {
    name "Load_40";
    parent "ref_lv_bus_52";
    phases ABCN;
    constant_power_A 3573.0+725.5j;
    nominal_voltage 230.00;
}

object load {
    name "Load_41";
    parent "ref_lv_bus_54";
    phases ABCN;
    constant_power_A 6637.0+1347.7j;
    nominal_voltage 230.00;
}

object load {
    name "Load_42";
    parent "ref_lv_bus_55";
    phases ABCN;
    constant_power_A 2081.0+422.6j;
    nominal_voltage 230.00;
}

object load {
    name "Load_43";
    parent "ref_lv_bus_56";
    phases ABCN;
    constant_power_A 2451.0+497.7j;
    nominal_voltage 230.00;
}

// ---- PV (inverter first, solar parented to it) ----